ieee39_zip - Copia.pwf
TITU
IEEE 39 BUS SYSTEM - ZIP LOAD MODEL (40Z, 40I, 20P)
DBAR
(Utilizar as mesmas barras do ieee39_base.pwf)
DLOD
    3      20.0 40.0 40.0
    4      20.0 40.0 40.0
    7      20.0 40.0 40.0
    8      20.0 40.0 40.0
   12      20.0 40.0 40.0
   15      20.0 40.0 40.0
   16      20.0 40.0 40.0
   18      20.0 40.0 40.0
   20      20.0 40.0 40.0
   21      20.0 40.0 40.0
   23      20.0 40.0 40.0
   24      20.0 40.0 40.0
   25      20.0 40.0 40.0
   26      20.0 40.0 40.0
   27      20.0 40.0 40.0
   28      20.0 40.0 40.0
   29      20.0 40.0 40.0
DLIN
(Utilizar as mesmas linhas do ieee39_base.pwf)
DGLO
BASE 100.0
EXEC
FIM
